OPT_V9/My_campus_w_initial_sub_3_active_25_03_11_44/powerflow_results_t22.txt
Pandapower Network Debug Info
==================================================

BUS:
       vm_pu  va_degree      p_mw    q_mvar
0   0.993320   0.108246  0.000966  0.000869
1   0.989281   0.166923  0.001246  0.001802
2   0.985531   0.213191  0.002119  0.002522
3   0.989547   0.192872  0.002423  0.004063
4   0.991104   0.198930  0.002432  0.004098
5   0.991709   0.168485  0.003541  0.006194
6   0.989991   0.182827  0.001078  0.001123
7   0.997325   0.011273  0.002149  0.001916
8   0.998016   0.043775  0.001897  0.003516
9   0.999892   0.000802  0.010456  0.008264
10  0.999880   0.000902  0.009755  0.008179
11  0.999870   0.001027  0.010293  0.012493
12  0.999787   0.001913  0.009610  0.006977
13  0.999772   0.002041  0.010226  0.010462
14  0.999763   0.002077  0.010879  0.009757
15  0.999933   0.000574  0.000000  0.000000
16  0.999933   0.000579  0.000000  0.000000
17  0.999792   0.001923  0.000000  0.000000
18  0.999792   0.001933  0.000000  0.000000
19  1.000000   0.000000 -0.037389 -0.043278
20  1.000000   0.000006  0.000000  0.000000
21  1.000000   0.000000 -0.041952 -0.049134
22  1.000000   0.000007  0.000000  0.000000
--------------------------------------------------

LINE:
    p_from_mw  q_from_mvar   p_to_mw  q_to_mvar         pl_mw       ql_mvar  i_from_ka   i_to_ka      i_ka  vm_from_pu  va_from_degree  vm_to_pu  va_to_degree  loading_percent
0    0.037379     0.039278 -0.037376  -0.039276  2.875674e-06  2.242210e-06   0.002087  0.002087  0.002087    1.000000        0.000006  0.999933      0.000574         0.907384
1    0.041942     0.045134 -0.041931  -0.045126  1.021119e-05  7.961833e-06   0.002371  0.002371  0.002371    1.000000        0.000007  0.999792      0.001923         1.031082
2    0.030506     0.028937 -0.030505  -0.028936  1.367317e-06  1.066120e-06   0.001619  0.001619  0.001619    0.999933        0.000574  0.999892      0.000802         0.703697
3    0.009610     0.006977 -0.009610  -0.006977  4.879162e-08  3.804363e-08   0.000457  0.000457  0.000457    0.999792        0.001923  0.999787      0.001913         0.198777
4    0.021106     0.020220 -0.021106  -0.020219  4.673172e-07  3.643749e-07   0.001125  0.001125  0.001125    0.999792        0.001923  0.999772      0.002041         0.489232
5    0.006860     0.009339 -0.006797  -0.009290  6.281441e-05  4.897743e-05   0.016727  0.016727  0.016727    0.999933        0.000579  0.993320      0.108246         7.272571
6    0.004680     0.007364 -0.004621  -0.007318  5.909128e-05  4.607445e-05   0.012597  0.012597  0.012597    0.999792        0.001933  0.991709      0.168485         5.476884
7    0.002154     0.001920 -0.002149  -0.001916  5.628732e-06  4.388815e-06   0.004166  0.004166  0.004166    0.999792        0.001933  0.997325      0.011273         1.811381
8    0.004371     0.007646 -0.004357  -0.007636  1.334152e-05  1.040260e-05   0.012714  0.012714  0.012714    0.999792        0.001933  0.998016      0.043775         5.528010
9   -0.020049    -0.020672  0.020049   0.020672  2.868459e-07  2.236585e-07   0.001109  0.001109  0.001109    0.999880        0.000902  0.999892      0.000802         0.481968
10  -0.010293    -0.012493  0.010293   0.012493  1.281800e-07  9.994408e-08   0.000623  0.000623  0.000623    0.999870        0.001027  0.999880      0.000902         0.270923
11  -0.010879    -0.009757  0.010880   0.009757  1.044993e-07  8.147984e-08   0.000563  0.000563  0.000563    0.999763        0.002077  0.999772      0.002041         0.244621
12  -0.003375    -0.004332  0.003393   0.004346  1.823012e-05  1.421432e-05   0.008012  0.008012  0.008012    0.989281        0.166923  0.993320      0.108246         3.483558
13  -0.002423    -0.004063  0.002438   0.004075  1.525985e-05  1.189836e-05   0.006900  0.006900  0.006900    0.989547        0.192872  0.993320      0.108246         3.000137
14  -0.002119    -0.002522  0.002129   0.002530  1.010746e-05  7.880950e-06   0.004825  0.004825  0.004825    0.985531        0.213191  0.989281      0.166923         2.097711
15   0.002460     0.004120 -0.002432  -0.004098  2.812485e-05  2.192941e-05   0.006939  0.006939  0.006939    0.998016        0.043775  0.991104      0.198930         3.017139
16  -0.001078    -0.001123  0.001080   0.001124  2.151797e-06  1.677791e-06   0.002269  0.002269  0.002269    0.989991        0.182827  0.991709      0.168485         0.986591
--------------------------------------------------

TRAFO:
    p_hv_mw  q_hv_mvar   p_lv_mw  q_lv_mvar    pl_mw  ql_mvar   i_hv_ka   i_lv_ka  vm_hv_pu  va_hv_degree  vm_lv_pu  va_lv_degree  loading_percent
0  0.006870   0.010339 -0.006860  -0.009339  0.00001    0.001  0.000478  0.016727  0.999933      0.000574  0.999933      0.000579         0.124143
1  0.011215   0.017930 -0.011205  -0.016930  0.00001    0.001  0.000814  0.029310  0.999792      0.001923  0.999792      0.001933         0.211528
2  0.037389   0.043278 -0.037379  -0.039278  0.00001    0.004  0.000472  0.002087  1.000000      0.000000  1.000000      0.000006         0.142980
3  0.041952   0.049134 -0.041942  -0.045134  0.00001    0.004  0.000533  0.002371  1.000000      0.000000  1.000000      0.000007         0.161518
--------------------------------------------------
